13

Fe          -0.00000073506113        0.00000020680476        0.00000036709140
C            2.25915790290760       -0.00000020346767        0.00000001412813
C            0.00000020687767        2.25915748374833        0.00000010869593
C            0.00000008919540       -0.00000013050673        2.25915728991387
C           -2.25915716183355       -0.00000020345399        0.00000001412619
C            0.00000020688706       -2.25915758074386        0.00000010870815
C            0.00000008920043       -0.00000013049834       -2.25915777557842
N            3.42358739531158        0.00000018972389        0.00000012173564
N           -0.00000037347419        3.42358697982151        0.00000005554811
N           -0.00000029256490        0.00000013776009        3.42358678791069
N           -3.42358666142072        0.00000018972326        0.00000012175193
N           -0.00000037347193       -3.42358707666299        0.00000005553718
N           -0.00000029255329        0.00000013775175       -3.42358726956877
