13

Fe          -0.00000701413241        0.00000656603031       -0.00000588831997
C            1.87605508129104       -0.00004278418169        0.00003949684839
C           -0.00011280305416        1.87606824728810        0.00009262045729
C            0.00006159085486        0.00004058662417        1.87605474901776
C           -1.87606667780398        0.00007276357784       -0.00006967729090
C            0.00010150720092       -1.87605360169930       -0.00006625378051
C           -0.00006049096066       -0.00006105405642       -1.87606704470627
O            2.98493246643064       -0.00028280546182        0.00014940537276
O           -0.00024255744384        2.98494577950558        0.00025252783033
O            0.00018964367599        0.00018339644398        2.98493215360036
O           -2.98494426513365        0.00033248346419       -0.00022597208048
O            0.00025683575006       -2.98493098050597       -0.00014155648139
O           -0.00016331667477       -0.00027859702894       -2.98494456046733
