11

Fe    -0.000003     0.000001     0.000002
 C     2.143285     0.000000    -0.000001
 C     0.000001     2.143285    -0.000001
 C    -0.000001    -1.071638     1.856141
 C    -2.143285     0.000004    -0.000003
 C    -0.000001    -1.039090    -1.874556
 O     3.304552     0.000000     0.000000
 O     0.000000     3.304552    -0.000000
 O    -0.000004    -1.652270     2.861829
 O    -3.304552     0.000007    -0.000002
 O    -0.000002    -1.602085    -2.890222
